Circuit: * C:\Users\robuv\Desktop\AI_2AO_Inverting\tot\Draft5.asc

Direct Newton iteration failed to find .op point.  (Use ".option noopiter" to skip.)
Starting Gmin stepping
Gmin = 10
Gmin = 1.07374
Gmin = 0.115292
Gmin = 0.0123794
Gmin = 0.00132923
Gmin = 0.000142725
vernier = 0.5
vernier = 0.25
vernier = 0.125
Gmin = 3.74144e-05
vernier = 0.0625
vernier = 0.03125
vernier = 0.015625
vernier = 0.0078125
vernier = 0.00390625
vernier = 0.00195312
vernier = 0.000976562
vernier = 0.000488281
Gmin = 0
Gmin stepping failed

Starting source stepping with srcstepmethod=0
Source Step = 3.0303%
Source Step = 33.3333%
Source Step = 63.6364%
vernier = 0.25
Source Step = 60.6238%
Source Step = 60.6534%
Source Step = 60.683%
Source Step = 60.7126%
Source Step = 60.7422%
vernier = 0.00146484
Source Step = 60.7733%
Source Step = 60.8176%
Source Step = 60.862%
Source Step = 60.9064%
Source Step = 60.9508%
Source Step = 60.9952%
vernier = 0.00219727
Source Step = 61.0618%
Source Step = 61.1284%
Source Step = 61.195%
Source Step = 61.2615%
Source Step = 61.3281%
vernier = 0.0032959
Source Step = 61.4247%
Source Step = 61.5245%
Source Step = 61.6244%
Source Step = 61.7243%
Source Step = 61.8242%
vernier = 0.00494385
Source Step = 61.964%
Source Step = 62.1138%
Source Step = 62.2636%
Source Step = 62.4134%
Source Step = 62.5633%
vernier = 0.00741577
Source Step = 62.7655%
Source Step = 62.9902%
Source Step = 63.2149%
Source Step = 63.4397%
Source Step = 63.6644%
vernier = 0.0111237
Source Step = 63.9565%
Source Step = 64.2936%
Source Step = 64.6307%
Source Step = 64.9678%
Source Step = 65.3048%
vernier = 0.0166855
Source Step = 65.7262%
Source Step = 66.2318%
Source Step = 66.7374%
Source Step = 67.2431%
Source Step = 67.7487%
vernier = 0.0250282
Source Step = 68.3554%
Source Step = 69.1139%
Source Step = 69.8723%
Source Step = 70.6307%
Source Step = 71.3891%
vernier = 0.0375423
Source Step = 72.2613%
Source Step = 73.399%
Source Step = 74.5366%
Source Step = 75.6743%
Source Step = 76.8119%
vernier = 0.0563135
Source Step = 78.0633%
Source Step = 79.7698%
Source Step = 81.4763%
Source Step = 83.1828%
Source Step = 84.8892%
vernier = 0.0844703
Source Step = 86.681%
Source Step = 89.2407%
Source Step = 91.8004%
Source Step = 94.3601%
Source Step = 95.144%
Source Step = 95.184%
Source Step = 95.224%
Source Step = 95.264%
Source Step = 95.304%
Source Step = 95.344%
Source Step = 95.384%
Source Step = 95.424%
Source Step = 95.464%
Source Step = 95.504%
Source Step = 95.544%
Source Step = 95.584%
Source Step = 95.624%
Source Step = 95.664%
Source Step = 95.704%
Source Step = 95.744%
Source Step = 95.784%
Source Step = 95.824%
Source Step = 95.864%
Source Step = 95.904%
Source Step = 95.9439%
Source Step = 95.9839%
Source Step = 96.0239%
Source Step = 96.0639%
Source Step = 96.1039%
Source Step = 96.1439%
Source Step = 96.1839%
Source Step = 96.2239%
Source Step = 96.2639%
Source Step = 96.3039%
Source Step = 96.3439%
Source Step = 96.3839%
Source Step = 96.4239%
Source Step = 96.4639%
Source Step = 96.5039%
Source Step = 96.5439%
Source Step = 96.5839%
Source Step = 96.6239%
Source Step = 96.6639%
Source Step = 96.7039%
Source Step = 96.7439%
Source Step = 96.7839%
Source Step = 96.8238%
Source Step = 96.8638%
Source Step = 96.9038%
Source Step = 96.9438%
Source Step = 96.9838%
Source Step = 97.0238%
Source Step = 97.0638%
Source Step = 97.1038%
Source Step = 97.1438%
Source Step = 97.1838%
Source Step = 97.2238%
Source stepping aborted.
Starting source stepping with srcstepmethod=1
Source Step = 3.0303%
Source Step = 33.3333%
Source Step = 63.6364%
Source Step = 93.9394%
Source Step = 100%
Source Step = 99.0118%
vernier = 0.000976562
Source Step = 99.0296%
Source Step = 99.0592%
Source Step = 99.0888%
Source Step = 99.1184%
Source Step = 99.148%
Source Step = 99.1776%
Source Step = 99.2071%
Source Step = 99.2367%
Source Step = 99.2663%
Source Step = 99.2959%
Source Step = 99.3255%
Source Step = 99.3551%
Source Step = 99.3847%
Source Step = 99.4143%
Source Step = 99.4439%
Source Step = 99.4735%
Source Step = 99.5031%
Source Step = 99.5327%
Source Step = 99.5623%
Source Step = 99.5919%
Source Step = 99.6214%
Source Step = 99.651%
Source Step = 99.6806%
Source Step = 99.7102%
Source Step = 99.7398%
Source Step = 99.7694%
Source Step = 99.799%
Source Step = 99.8286%
Source Step = 99.8582%
Source Step = 99.8878%
Source Step = 99.9174%
Source Step = 99.947%
Source Step = 99.9766%
Source Step = 100%
Source Step = 100%
Source Step = 100%
Source Step = 100%
Source Step = 100%
Source Step = 100%
Source Step = 100%
Source Step = 100%
Source Step = 100%
Source stepping succeeded in finding the operating point.


Date: Wed Jan 17 21:49:47 2024
Total elapsed time: 21.088 seconds.

tnom = 27
temp = 27
method = trap
totiter = 102190
traniter = 0
tranpoints = 0
accept = 0
rejected = 0
matrix size = 432
fillins = 905
solver = Normal
Avg thread counts: 3.0/0.0/1.8/1.0
Matrix Compiler1:    3554 opcodes  11.1/[4.1]/5.3
Matrix Compiler2: 50.44 KB object code size  3.2/4.3/[2.3]

